CHEMBL231079
     RDKit          3D

 62 66  0  0  0  0  0  0  0  0999 V2000
  -11.3779   -1.7714    1.5270 C   0  0  0  0  0  0  0  0  0  0  0  0
  -10.1693   -0.9679    1.1517 C   0  0  0  0  0  0  0  0  0  0  0  0
  -10.3430    0.4828    1.0605 C   0  0  0  0  0  0  0  0  0  0  0  0
   -9.2918    1.2514    0.7282 C   0  0  0  0  0  0  0  0  0  0  0  0
   -8.0629    0.6484    0.4789 N   0  0  0  0  0  0  0  0  0  0  0  0
   -6.8646    1.2193    0.1302 C   0  0  0  0  0  0  0  0  0  0  0  0
   -5.9736    0.1719    0.0098 C   0  0  0  0  0  0  0  0  0  0  0  0
   -4.5627    0.2629   -0.3407 C   0  0  0  0  0  0  0  0  0  0  0  0
   -3.8131   -0.9111   -0.4878 C   0  0  0  0  0  0  0  0  0  0  0  0
   -2.4550   -0.8575   -0.8178 C   0  0  0  0  0  0  0  0  0  0  0  0
   -1.8163    0.3683   -1.0037 C   0  0  0  0  0  0  0  0  0  0  0  0
   -0.4889    0.2804   -1.3169 O   0  0  0  0  0  0  0  0  0  0  0  0
    0.2416    1.5025   -1.4077 C   0  0  0  0  0  0  0  0  0  0  0  0
    1.7162    1.1864   -1.6612 C   0  0  0  0  0  0  0  0  0  0  0  0
    2.3318    0.3928   -0.5013 C   0  0  0  0  0  0  0  0  0  0  0  0
    3.7470    0.0517   -0.7368 N   0  0  0  0  0  0  0  0  0  0  0  0
    4.1810   -0.9797    0.2406 C   0  0  0  0  0  0  0  0  0  0  0  0
    5.6629   -1.3850    0.0727 C   0  0  0  0  0  0  0  0  0  0  0  0
    6.5253   -0.1982    0.1411 N   0  0  0  0  0  0  0  0  0  0  0  0
    7.8908   -0.3465    0.3859 C   0  0  0  0  0  0  0  0  0  0  0  0
    8.6231   -1.3520   -0.2703 C   0  0  0  0  0  0  0  0  0  0  0  0
    9.9936   -1.5166   -0.0575 C   0  0  0  0  0  0  0  0  0  0  0  0
   10.6660   -0.6735    0.8204 C   0  0  0  0  0  0  0  0  0  0  0  0
    9.9694    0.3353    1.4895 C   0  0  0  0  0  0  0  0  0  0  0  0
   10.8806    1.3375    2.5681 Cl  0  0  0  0  0  0  0  0  0  0  0  0
    8.5897    0.5040    1.2793 C   0  0  0  0  0  0  0  0  0  0  0  0
    7.7181    1.7293    2.1608 Cl  0  0  0  0  0  0  0  0  0  0  0  0
    6.1346    0.8906   -0.7693 C   0  0  0  0  0  0  0  0  0  0  0  0
    4.6350    1.2330   -0.5958 C   0  0  0  0  0  0  0  0  0  0  0  0
   -2.5526    1.5436   -0.8653 C   0  0  0  0  0  0  0  0  0  0  0  0
   -3.9153    1.4904   -0.5355 C   0  0  0  0  0  0  0  0  0  0  0  0
   -6.6035   -1.0279    0.2725 N   0  0  0  0  0  0  0  0  0  0  0  0
   -7.8515   -0.7215    0.5533 C   0  0  0  0  0  0  0  0  0  0  0  0
   -8.9664   -1.5344    0.9053 C   0  0  0  0  0  0  0  0  0  0  0  0
  -12.1801   -1.6250    0.7961 H   0  0  0  0  0  0  0  0  0  0  0  0
  -11.7473   -1.4729    2.5130 H   0  0  0  0  0  0  0  0  0  0  0  0
  -11.1586   -2.8433    1.5665 H   0  0  0  0  0  0  0  0  0  0  0  0
  -11.3172    0.9159    1.2635 H   0  0  0  0  0  0  0  0  0  0  0  0
   -9.3482    2.3285    0.6428 H   0  0  0  0  0  0  0  0  0  0  0  0
   -6.7655    2.2870    0.0056 H   0  0  0  0  0  0  0  0  0  0  0  0
   -4.2844   -1.8818   -0.3447 H   0  0  0  0  0  0  0  0  0  0  0  0
   -1.8937   -1.7822   -0.9267 H   0  0  0  0  0  0  0  0  0  0  0  0
   -0.1392    2.0982   -2.2461 H   0  0  0  0  0  0  0  0  0  0  0  0
    0.1498    2.0755   -0.4767 H   0  0  0  0  0  0  0  0  0  0  0  0
    1.8065    0.5982   -2.5825 H   0  0  0  0  0  0  0  0  0  0  0  0
    2.2467    2.1315   -1.8138 H   0  0  0  0  0  0  0  0  0  0  0  0
    2.2140    0.9434    0.4408 H   0  0  0  0  0  0  0  0  0  0  0  0
    1.7606   -0.5379   -0.3959 H   0  0  0  0  0  0  0  0  0  0  0  0
    4.0251   -0.6160    1.2656 H   0  0  0  0  0  0  0  0  0  0  0  0
    3.5699   -1.8820    0.1156 H   0  0  0  0  0  0  0  0  0  0  0  0
    5.9225   -2.0920    0.8700 H   0  0  0  0  0  0  0  0  0  0  0  0
    5.7924   -1.8944   -0.8905 H   0  0  0  0  0  0  0  0  0  0  0  0
    8.1284   -2.0127   -0.9784 H   0  0  0  0  0  0  0  0  0  0  0  0
   10.5335   -2.3000   -0.5835 H   0  0  0  0  0  0  0  0  0  0  0  0
   11.7331   -0.8071    0.9821 H   0  0  0  0  0  0  0  0  0  0  0  0
    6.7211    1.7989   -0.5902 H   0  0  0  0  0  0  0  0  0  0  0  0
    6.3240    0.5818   -1.8056 H   0  0  0  0  0  0  0  0  0  0  0  0
    4.3842    1.9849   -1.3512 H   0  0  0  0  0  0  0  0  0  0  0  0
    4.4912    1.6961    0.3898 H   0  0  0  0  0  0  0  0  0  0  0  0
   -2.1026    2.5198   -1.0088 H   0  0  0  0  0  0  0  0  0  0  0  0
   -4.4544    2.4278   -0.4325 H   0  0  0  0  0  0  0  0  0  0  0  0
   -8.8099   -2.6061    0.9673 H   0  0  0  0  0  0  0  0  0  0  0  0
  1  2  1  0
  2  3  1  0
  3  4  2  0
  4  5  1  0
  5  6  1  0
  6  7  2  0
  7  8  1  0
  8  9  2  0
  9 10  1  0
 10 11  2  0
 11 12  1  0
 12 13  1  0
 13 14  1  0
 14 15  1  0
 15 16  1  0
 16 17  1  0
 17 18  1  0
 18 19  1  0
 19 20  1  0
 20 21  2  0
 21 22  1  0
 22 23  2  0
 23 24  1  0
 24 25  1  0
 24 26  2  0
 26 27  1  0
 19 28  1  0
 28 29  1  0
 11 30  1  0
 30 31  2  0
  7 32  1  0
 32 33  2  0
 33 34  1  0
 34  2  2  0
 33  5  1  0
 31  8  1  0
 29 16  1  0
 26 20  1  0
  1 35  1  0
  1 36  1  0
  1 37  1  0
  3 38  1  0
  4 39  1  0
  6 40  1  0
  9 41  1  0
 10 42  1  0
 13 43  1  0
 13 44  1  0
 14 45  1  0
 14 46  1  0
 15 47  1  0
 15 48  1  0
 17 49  1  0
 17 50  1  0
 18 51  1  0
 18 52  1  0
 21 53  1  0
 22 54  1  0
 23 55  1  0
 28 56  1  0
 28 57  1  0
 29 58  1  0
 29 59  1  0
 30 60  1  0
 31 61  1  0
 34 62  1  0
M  END
>  <ConfId>  (1) 
153

>  <ConfEnergies>  (1) 
0.0 kcal/mol

$$$$
