CHEMBL1521196
     RDKit          3D

 28 30  0  0  0  0  0  0  0  0999 V2000
    5.7123   -0.9189   -0.1294 C   0  0  0  0  0  0  0  0  0  0  0  0
    4.3187   -0.3939   -0.1025 C   0  0  0  0  0  0  0  0  0  0  0  0
    3.6585    0.3353   -1.0653 C   0  0  0  0  0  0  0  0  0  0  0  0
    2.3255    0.6588   -0.6758 C   0  0  0  0  0  0  0  0  0  0  0  0
    1.9819    0.1550    0.5658 C   0  0  0  0  0  0  0  0  0  0  0  0
    0.7850    0.2535    1.3286 C   0  0  0  0  0  0  0  0  0  0  0  0
   -0.4605    0.2049    0.8384 C   0  0  0  0  0  0  0  0  0  0  0  0
   -1.6186    0.3224    1.7718 C   0  0  0  0  0  0  0  0  0  0  0  0
   -1.6018    0.4819    2.9745 O   0  0  0  0  0  0  0  0  0  0  0  0
   -2.8158    0.2097    0.9344 C   0  0  0  0  0  0  0  0  0  0  0  0
   -4.1405    0.2600    1.3300 C   0  0  0  0  0  0  0  0  0  0  0  0
   -5.1162    0.1265    0.3376 C   0  0  0  0  0  0  0  0  0  0  0  0
   -4.7535   -0.0527   -1.0120 C   0  0  0  0  0  0  0  0  0  0  0  0
   -3.4088   -0.1012   -1.3924 C   0  0  0  0  0  0  0  0  0  0  0  0
   -2.4565    0.0335   -0.3975 C   0  0  0  0  0  0  0  0  0  0  0  0
   -0.9952    0.0155   -0.5393 C   0  0  0  0  0  0  0  0  0  0  0  0
   -0.4075   -0.1338   -1.5884 O   0  0  0  0  0  0  0  0  0  0  0  0
    3.3284   -0.6734    1.2599 S   0  0  0  0  0  0  0  0  0  0  0  0
    6.2103   -0.6589   -1.0695 H   0  0  0  0  0  0  0  0  0  0  0  0
    6.3028   -0.4961    0.6900 H   0  0  0  0  0  0  0  0  0  0  0  0
    5.7185   -2.0101   -0.0386 H   0  0  0  0  0  0  0  0  0  0  0  0
    4.1042    0.6294   -2.0078 H   0  0  0  0  0  0  0  0  0  0  0  0
    1.6527    1.2392   -1.2954 H   0  0  0  0  0  0  0  0  0  0  0  0
    0.9069    0.3509    2.4079 H   0  0  0  0  0  0  0  0  0  0  0  0
   -4.4099    0.3977    2.3729 H   0  0  0  0  0  0  0  0  0  0  0  0
   -6.1701    0.1604    0.6093 H   0  0  0  0  0  0  0  0  0  0  0  0
   -5.5313   -0.1554   -1.7670 H   0  0  0  0  0  0  0  0  0  0  0  0
   -3.1194   -0.2403   -2.4298 H   0  0  0  0  0  0  0  0  0  0  0  0
  1  2  1  0
  2  3  2  0
  3  4  1  0
  4  5  2  0
  5  6  1  0
  6  7  2  3
  7  8  1  0
  8  9  2  0
  8 10  1  0
 10 11  2  0
 11 12  1  0
 12 13  2  0
 13 14  1  0
 14 15  2  0
 15 16  1  0
 16 17  2  0
  5 18  1  0
 18  2  1  0
 16  7  1  0
 15 10  1  0
  1 19  1  0
  1 20  1  0
  1 21  1  0
  3 22  1  0
  4 23  1  0
  6 24  1  0
 11 25  1  0
 12 26  1  0
 13 27  1  0
 14 28  1  0
M  END
>  <ConfId>  (1) 
167

>  <ConfEnergies>  (1) 
0.0 kcal/mol

$$$$
