CHEMBL1521196
xtb program, MCTC, University of Bonn, Germany

 28 30  0     0  0  0  0  0  0999 V2000
   5.92520  -0.37815   0.07152 C   0  0  0  0  0  0  0  0  0  0  0  0
   4.44645  -0.27559  -0.01425 C   0  0  0  0  0  0  0  0  0  0  0  0
   3.67317  -0.18673  -1.14314 C   0  0  0  0  0  0  0  0  0  0  0  0
   2.30267  -0.10511  -0.88233 C   0  0  0  0  0  0  0  0  0  0  0  0
   2.00259  -0.13237   0.46463 C   0  0  0  0  0  0  0  0  0  0  0  0
   0.77693  -0.07970   1.16290 C   0  0  0  0  0  0  0  0  0  0  0  0
  -0.50657   0.01579   0.71883 C   0  0  0  0  0  0  0  0  0  0  0  0
  -1.60585   0.04573   1.71362 C   0  0  0  0  0  0  0  0  0  0  0  0
  -1.49008  -0.00614   2.91866 O   0  0  0  0  0  0  0  0  0  0  0  0
  -2.86117   0.14933   0.93533 C   0  0  0  0  0  0  0  0  0  0  0  0
  -4.17077   0.21281   1.37338 C   0  0  0  0  0  0  0  0  0  0  0  0
  -5.17596   0.30629   0.41958 C   0  0  0  0  0  0  0  0  0  0  0  0
  -4.87522   0.33469  -0.93548 C   0  0  0  0  0  0  0  0  0  0  0  0
  -3.56034   0.27210  -1.37768 C   0  0  0  0  0  0  0  0  0  0  0  0
  -2.55760   0.17946  -0.43032 C   0  0  0  0  0  0  0  0  0  0  0  0
  -1.08813   0.10026  -0.63158 C   0  0  0  0  0  0  0  0  0  0  0  0
  -0.52630   0.10923  -1.70836 O   0  0  0  0  0  0  0  0  0  0  0  0
   3.47638  -0.26044   1.40908 S   0  0  0  0  0  0  0  0  0  0  0  0
   6.36129  -0.34627  -0.92387 H   0  0  0  0  0  0  0  0  0  0  0  0
   6.33359   0.44076   0.66326 H   0  0  0  0  0  0  0  0  0  0  0  0
   6.21666  -1.31080   0.55436 H   0  0  0  0  0  0  0  0  0  0  0  0
   4.09081  -0.18022  -2.13458 H   0  0  0  0  0  0  0  0  0  0  0  0
   1.54321  -0.02935  -1.63914 H   0  0  0  0  0  0  0  0  0  0  0  0
   0.86542  -0.12386   2.24635 H   0  0  0  0  0  0  0  0  0  0  0  0
  -4.39456   0.18921   2.42890 H   0  0  0  0  0  0  0  0  0  0  0  0
  -6.20757   0.35755   0.73536 H   0  0  0  0  0  0  0  0  0  0  0  0
  -5.67710   0.40773  -1.65560 H   0  0  0  0  0  0  0  0  0  0  0  0
  -3.31706   0.29369  -2.42904 H   0  0  0  0  0  0  0  0  0  0  0  0
  1  2  1  0  0  0  0
  2  3  2  0  0  0  0
  3  4  4  0  0  0  0
  4  5  4  0  0  0  0
  5  6  4  0  0  0  0
  6  7  2  0  0  0  0
  7  8  1  0  0  0  0
  8  9  2  0  0  0  0
  8 10  1  0  0  0  0
 10 11  4  0  0  0  0
 11 12  4  0  0  0  0
 12 13  4  0  0  0  0
 13 14  4  0  0  0  0
 10 15  4  0  0  0  0
 14 15  4  0  0  0  0
  7 16  1  0  0  0  0
 15 16  1  0  0  0  0
 16 17  2  0  0  0  0
  2 18  1  0  0  0  0
  5 18  1  0  0  0  0
  1 19  1  0  0  0  0
  1 20  1  0  0  0  0
  1 21  1  0  0  0  0
  3 22  1  0  0  0  0
  4 23  1  0  0  0  0
  6 24  1  0  0  0  0
 11 25  1  0  0  0  0
 12 26  1  0  0  0  0
 13 27  1  0  0  0  0
 14 28  1  0  0  0  0
M  END
> <total energy in Eh>
      -48.55792175

> <HL gap in eV>
        2.04113807

> <dipole moment in D>
        1.87880281

$$$$
